data/datasets/lanl400/graph_lanl400.dss
Clear
Set DefaultBaseFrequency=60
new circuit.LANL420Nodeckt
~ Angle=45
~ basekv=0.4 pu=1 phases=1 bus1=7777.1 enabled=n ! VOLTAGE SOURCE DEFINITION

New linecode.mtx001 nphases=1 Units=m Rmatrix=[0.37] Xmatrix=[0.37]
New linecode.mtx002 nphases=1 Units=m Rmatrix=[0.48] Xmatrix=[0.48]
New linecode.mtx003 nphases=1 Units=m Rmatrix=[0.67] Xmatrix=[0.67]
New linecode.mtx004 nphases=1 Units=m Rmatrix=[0.80] Xmatrix=[0.80]
New linecode.mtx005 nphases=1 Units=m Rmatrix=[0.72] Xmatrix=[0.72]
New linecode.mtx006 nphases=1 Units=m Rmatrix=[0.33] Xmatrix=[0.33]
New linecode.mtx007 nphases=1 Units=m Rmatrix=[0.21] Xmatrix=[0.21]
New linecode.mtx008 nphases=1 Units=m Rmatrix=[0.52] Xmatrix=[0.52]
New linecode.mtx009 nphases=1 Units=m Rmatrix=[1.00] Xmatrix=[1.00]
New linecode.mtx010 nphases=1 Units=m Rmatrix=[0.74] Xmatrix=[0.74]
New linecode.mtx011 nphases=1 Units=m Rmatrix=[0.42] Xmatrix=[0.42]
New linecode.mtx012 nphases=1 Units=m Rmatrix=[0.30] Xmatrix=[0.30]
New linecode.mtx013 nphases=1 Units=m Rmatrix=[0.64] Xmatrix=[0.64]
New linecode.mtx014 nphases=1 Units=m Rmatrix=[0.20] Xmatrix=[0.20]
New linecode.mtx015 nphases=1 Units=m Rmatrix=[0.84] Xmatrix=[0.84]
New linecode.mtx016 nphases=1 Units=m Rmatrix=[0.76] Xmatrix=[0.76]
New linecode.mtx017 nphases=1 Units=m Rmatrix=[0.16] Xmatrix=[0.16]
New linecode.mtx018 nphases=1 Units=m Rmatrix=[0.07] Xmatrix=[0.07]
New linecode.mtx019 nphases=1 Units=m Rmatrix=[0.27] Xmatrix=[0.27]
New linecode.mtx020 nphases=1 Units=m Rmatrix=[0.08] Xmatrix=[0.08]
New linecode.mtx021 nphases=1 Units=m Rmatrix=[0.38] Xmatrix=[0.38]
New linecode.mtx022 nphases=1 Units=m Rmatrix=[0.10] Xmatrix=[0.10]
New linecode.mtx023 nphases=1 Units=m Rmatrix=[0.57] Xmatrix=[0.57]
New linecode.mtx024 nphases=1 Units=m Rmatrix=[0.32] Xmatrix=[0.32]
New linecode.mtx025 nphases=1 Units=m Rmatrix=[0.57] Xmatrix=[0.57]
New linecode.mtx026 nphases=1 Units=m Rmatrix=[0.73] Xmatrix=[0.73]
New linecode.mtx027 nphases=1 Units=m Rmatrix=[0.14] Xmatrix=[0.14]
New linecode.mtx028 nphases=1 Units=m Rmatrix=[0.14] Xmatrix=[0.14]
New linecode.mtx029 nphases=1 Units=m Rmatrix=[0.17] Xmatrix=[0.17]
New linecode.mtx030 nphases=1 Units=m Rmatrix=[0.98] Xmatrix=[0.98]
New linecode.mtx031 nphases=1 Units=m Rmatrix=[0.29] Xmatrix=[0.29]
New linecode.mtx032 nphases=1 Units=m Rmatrix=[0.17] Xmatrix=[0.17]
New linecode.mtx033 nphases=1 Units=m Rmatrix=[0.48] Xmatrix=[0.48]
New linecode.mtx034 nphases=1 Units=m Rmatrix=[0.36] Xmatrix=[0.36]
New linecode.mtx035 nphases=1 Units=m Rmatrix=[0.99] Xmatrix=[0.99]
New linecode.mtx036 nphases=1 Units=m Rmatrix=[0.52] Xmatrix=[0.52]
New linecode.mtx037 nphases=1 Units=m Rmatrix=[0.47] Xmatrix=[0.47]
New linecode.mtx038 nphases=1 Units=m Rmatrix=[0.11] Xmatrix=[0.11]
New linecode.mtx039 nphases=1 Units=m Rmatrix=[0.88] Xmatrix=[0.88]
New linecode.mtx040 nphases=1 Units=m Rmatrix=[0.76] Xmatrix=[0.76]
New linecode.mtx041 nphases=1 Units=m Rmatrix=[0.81] Xmatrix=[0.81]
New linecode.mtx042 nphases=1 Units=m Rmatrix=[0.51] Xmatrix=[0.51]
New linecode.mtx043 nphases=1 Units=m Rmatrix=[0.57] Xmatrix=[0.57]
New linecode.mtx044 nphases=1 Units=m Rmatrix=[0.39] Xmatrix=[0.39]
New linecode.mtx045 nphases=1 Units=m Rmatrix=[0.95] Xmatrix=[0.95]
New linecode.mtx046 nphases=1 Units=m Rmatrix=[0.97] Xmatrix=[0.97]
New linecode.mtx047 nphases=1 Units=m Rmatrix=[0.08] Xmatrix=[0.08]
New linecode.mtx048 nphases=1 Units=m Rmatrix=[0.89] Xmatrix=[0.89]
New linecode.mtx049 nphases=1 Units=m Rmatrix=[0.79] Xmatrix=[0.79]
New linecode.mtx050 nphases=1 Units=m Rmatrix=[0.45] Xmatrix=[0.45]
New linecode.mtx051 nphases=1 Units=m Rmatrix=[0.51] Xmatrix=[0.51]
New linecode.mtx052 nphases=1 Units=m Rmatrix=[0.21] Xmatrix=[0.21]
New linecode.mtx053 nphases=1 Units=m Rmatrix=[0.50] Xmatrix=[0.50]
New linecode.mtx054 nphases=1 Units=m Rmatrix=[0.47] Xmatrix=[0.47]
New linecode.mtx055 nphases=1 Units=m Rmatrix=[0.21] Xmatrix=[0.21]
New linecode.mtx056 nphases=1 Units=m Rmatrix=[0.29] Xmatrix=[0.29]
New linecode.mtx057 nphases=1 Units=m Rmatrix=[0.76] Xmatrix=[0.76]
New linecode.mtx058 nphases=1 Units=m Rmatrix=[0.05] Xmatrix=[0.05]
New linecode.mtx059 nphases=1 Units=m Rmatrix=[0.98] Xmatrix=[0.98]
New linecode.mtx060 nphases=1 Units=m Rmatrix=[0.10] Xmatrix=[0.10]
New linecode.mtx061 nphases=1 Units=m Rmatrix=[0.07] Xmatrix=[0.07]
New linecode.mtx062 nphases=1 Units=m Rmatrix=[0.19] Xmatrix=[0.19]
New linecode.mtx063 nphases=1 Units=m Rmatrix=[0.23] Xmatrix=[0.23]
New linecode.mtx064 nphases=1 Units=m Rmatrix=[0.95] Xmatrix=[0.95]
New linecode.mtx065 nphases=1 Units=m Rmatrix=[0.21] Xmatrix=[0.21]
New linecode.mtx066 nphases=1 Units=m Rmatrix=[0.02] Xmatrix=[0.02]
New linecode.mtx067 nphases=1 Units=m Rmatrix=[0.29] Xmatrix=[0.29]
New linecode.mtx068 nphases=1 Units=m Rmatrix=[0.02] Xmatrix=[0.02]
New linecode.mtx069 nphases=1 Units=m Rmatrix=[0.99] Xmatrix=[0.99]
New linecode.mtx070 nphases=1 Units=m Rmatrix=[0.74] Xmatrix=[0.74]
New linecode.mtx071 nphases=1 Units=m Rmatrix=[0.72] Xmatrix=[0.72]
New linecode.mtx072 nphases=1 Units=m Rmatrix=[0.37] Xmatrix=[0.37]
New linecode.mtx073 nphases=1 Units=m Rmatrix=[0.48] Xmatrix=[0.48]
New linecode.mtx074 nphases=1 Units=m Rmatrix=[0.37] Xmatrix=[0.37]
New linecode.mtx075 nphases=1 Units=m Rmatrix=[0.85] Xmatrix=[0.85]
New linecode.mtx076 nphases=1 Units=m Rmatrix=[0.28] Xmatrix=[0.28]
New linecode.mtx077 nphases=1 Units=m Rmatrix=[0.41] Xmatrix=[0.41]
New linecode.mtx078 nphases=1 Units=m Rmatrix=[0.42] Xmatrix=[0.42]
New linecode.mtx079 nphases=1 Units=m Rmatrix=[0.67] Xmatrix=[0.67]
New linecode.mtx080 nphases=1 Units=m Rmatrix=[0.81] Xmatrix=[0.81]
New linecode.mtx081 nphases=1 Units=m Rmatrix=[0.09] Xmatrix=[0.09]
New linecode.mtx082 nphases=1 Units=m Rmatrix=[0.01] Xmatrix=[0.01]
New linecode.mtx083 nphases=1 Units=m Rmatrix=[0.59] Xmatrix=[0.59]
New linecode.mtx084 nphases=1 Units=m Rmatrix=[0.68] Xmatrix=[0.68]
New linecode.mtx085 nphases=1 Units=m Rmatrix=[0.42] Xmatrix=[0.42]
New linecode.mtx086 nphases=1 Units=m Rmatrix=[0.28] Xmatrix=[0.28]
New linecode.mtx087 nphases=1 Units=m Rmatrix=[0.35] Xmatrix=[0.35]
New linecode.mtx088 nphases=1 Units=m Rmatrix=[0.55] Xmatrix=[0.55]
New linecode.mtx089 nphases=1 Units=m Rmatrix=[0.44] Xmatrix=[0.44]
New linecode.mtx090 nphases=1 Units=m Rmatrix=[0.63] Xmatrix=[0.63]
New linecode.mtx091 nphases=1 Units=m Rmatrix=[0.89] Xmatrix=[0.89]
New linecode.mtx092 nphases=1 Units=m Rmatrix=[0.60] Xmatrix=[0.60]
New linecode.mtx093 nphases=1 Units=m Rmatrix=[0.74] Xmatrix=[0.74]
New linecode.mtx094 nphases=1 Units=m Rmatrix=[0.28] Xmatrix=[0.28]
New linecode.mtx095 nphases=1 Units=m Rmatrix=[0.48] Xmatrix=[0.48]
New linecode.mtx096 nphases=1 Units=m Rmatrix=[0.39] Xmatrix=[0.39]
New linecode.mtx097 nphases=1 Units=m Rmatrix=[0.90] Xmatrix=[0.90]
New linecode.mtx098 nphases=1 Units=m Rmatrix=[0.56] Xmatrix=[0.56]
New linecode.mtx099 nphases=1 Units=m Rmatrix=[0.37] Xmatrix=[0.37]
New linecode.mtx100 nphases=1 Units=m Rmatrix=[0.46] Xmatrix=[0.46]
New linecode.mtx101 nphases=1 Units=m Rmatrix=[0.82] Xmatrix=[0.82]
New linecode.mtx102 nphases=1 Units=m Rmatrix=[0.93] Xmatrix=[0.93]
New linecode.mtx103 nphases=1 Units=m Rmatrix=[0.46] Xmatrix=[0.46]
New linecode.mtx104 nphases=1 Units=m Rmatrix=[0.77] Xmatrix=[0.77]
New linecode.mtx105 nphases=1 Units=m Rmatrix=[0.30] Xmatrix=[0.30]
New linecode.mtx106 nphases=1 Units=m Rmatrix=[0.21] Xmatrix=[0.21]
New linecode.mtx107 nphases=1 Units=m Rmatrix=[0.38] Xmatrix=[0.38]
New linecode.mtx108 nphases=1 Units=m Rmatrix=[0.57] Xmatrix=[0.57]
New linecode.mtx109 nphases=1 Units=m Rmatrix=[0.23] Xmatrix=[0.23]
New linecode.mtx110 nphases=1 Units=m Rmatrix=[0.10] Xmatrix=[0.10]
New linecode.mtx111 nphases=1 Units=m Rmatrix=[0.58] Xmatrix=[0.58]
New linecode.mtx112 nphases=1 Units=m Rmatrix=[0.31] Xmatrix=[0.31]
New linecode.mtx113 nphases=1 Units=m Rmatrix=[0.15] Xmatrix=[0.15]
New linecode.mtx114 nphases=1 Units=m Rmatrix=[0.50] Xmatrix=[0.50]
New linecode.mtx115 nphases=1 Units=m Rmatrix=[0.95] Xmatrix=[0.95]
New linecode.mtx116 nphases=1 Units=m Rmatrix=[0.49] Xmatrix=[0.49]
New linecode.mtx117 nphases=1 Units=m Rmatrix=[0.04] Xmatrix=[0.04]
New linecode.mtx118 nphases=1 Units=m Rmatrix=[0.37] Xmatrix=[0.37]
New linecode.mtx119 nphases=1 Units=m Rmatrix=[0.42] Xmatrix=[0.42]
New linecode.mtx120 nphases=1 Units=m Rmatrix=[0.76] Xmatrix=[0.76]
New linecode.mtx121 nphases=1 Units=m Rmatrix=[0.16] Xmatrix=[0.16]
New linecode.mtx122 nphases=1 Units=m Rmatrix=[0.22] Xmatrix=[0.22]
New linecode.mtx123 nphases=1 Units=m Rmatrix=[0.98] Xmatrix=[0.98]
New linecode.mtx124 nphases=1 Units=m Rmatrix=[0.09] Xmatrix=[0.09]
New linecode.mtx125 nphases=1 Units=m Rmatrix=[0.08] Xmatrix=[0.08]
New linecode.mtx126 nphases=1 Units=m Rmatrix=[0.96] Xmatrix=[0.96]
New linecode.mtx127 nphases=1 Units=m Rmatrix=[0.35] Xmatrix=[0.35]
New linecode.mtx128 nphases=1 Units=m Rmatrix=[0.43] Xmatrix=[0.43]
New linecode.mtx129 nphases=1 Units=m Rmatrix=[0.69] Xmatrix=[0.69]
New linecode.mtx130 nphases=1 Units=m Rmatrix=[0.79] Xmatrix=[0.79]
New linecode.mtx131 nphases=1 Units=m Rmatrix=[0.70] Xmatrix=[0.70]
New linecode.mtx132 nphases=1 Units=m Rmatrix=[0.49] Xmatrix=[0.49]
New linecode.mtx133 nphases=1 Units=m Rmatrix=[0.73] Xmatrix=[0.73]
New linecode.mtx134 nphases=1 Units=m Rmatrix=[0.35] Xmatrix=[0.35]
New linecode.mtx135 nphases=1 Units=m Rmatrix=[0.42] Xmatrix=[0.42]
New linecode.mtx136 nphases=1 Units=m Rmatrix=[0.70] Xmatrix=[0.70]
New linecode.mtx137 nphases=1 Units=m Rmatrix=[0.70] Xmatrix=[0.70]
New linecode.mtx138 nphases=1 Units=m Rmatrix=[0.35] Xmatrix=[0.35]
New linecode.mtx139 nphases=1 Units=m Rmatrix=[0.84] Xmatrix=[0.84]
New linecode.mtx140 nphases=1 Units=m Rmatrix=[0.72] Xmatrix=[0.72]
New linecode.mtx141 nphases=1 Units=m Rmatrix=[0.89] Xmatrix=[0.89]
New linecode.mtx142 nphases=1 Units=m Rmatrix=[0.54] Xmatrix=[0.54]
New linecode.mtx143 nphases=1 Units=m Rmatrix=[0.50] Xmatrix=[0.50]
New linecode.mtx144 nphases=1 Units=m Rmatrix=[0.53] Xmatrix=[0.53]
New linecode.mtx145 nphases=1 Units=m Rmatrix=[0.41] Xmatrix=[0.41]
New linecode.mtx146 nphases=1 Units=m Rmatrix=[0.63] Xmatrix=[0.63]
New linecode.mtx147 nphases=1 Units=m Rmatrix=[0.12] Xmatrix=[0.12]
New linecode.mtx148 nphases=1 Units=m Rmatrix=[0.60] Xmatrix=[0.60]
New linecode.mtx149 nphases=1 Units=m Rmatrix=[0.30] Xmatrix=[0.30]
New linecode.mtx150 nphases=1 Units=m Rmatrix=[0.77] Xmatrix=[0.77]
New linecode.mtx151 nphases=1 Units=m Rmatrix=[0.23] Xmatrix=[0.23]
New linecode.mtx152 nphases=1 Units=m Rmatrix=[0.51] Xmatrix=[0.51]
New linecode.mtx153 nphases=1 Units=m Rmatrix=[0.96] Xmatrix=[0.96]
New linecode.mtx154 nphases=1 Units=m Rmatrix=[0.20] Xmatrix=[0.20]
New linecode.mtx155 nphases=1 Units=m Rmatrix=[0.54] Xmatrix=[0.54]
New linecode.mtx156 nphases=1 Units=m Rmatrix=[0.47] Xmatrix=[0.47]
New linecode.mtx157 nphases=1 Units=m Rmatrix=[0.19] Xmatrix=[0.19]
New linecode.mtx158 nphases=1 Units=m Rmatrix=[0.94] Xmatrix=[0.94]
New linecode.mtx159 nphases=1 Units=m Rmatrix=[0.47] Xmatrix=[0.47]
New linecode.mtx160 nphases=1 Units=m Rmatrix=[0.87] Xmatrix=[0.87]
New linecode.mtx161 nphases=1 Units=m Rmatrix=[0.61] Xmatrix=[0.61]
New linecode.mtx162 nphases=1 Units=m Rmatrix=[0.16] Xmatrix=[0.16]
New linecode.mtx163 nphases=1 Units=m Rmatrix=[0.63] Xmatrix=[0.63]
New linecode.mtx164 nphases=1 Units=m Rmatrix=[0.16] Xmatrix=[0.16]
New linecode.mtx165 nphases=1 Units=m Rmatrix=[0.72] Xmatrix=[0.72]
New linecode.mtx166 nphases=1 Units=m Rmatrix=[0.36] Xmatrix=[0.36]
New linecode.mtx167 nphases=1 Units=m Rmatrix=[0.49] Xmatrix=[0.49]
New linecode.mtx168 nphases=1 Units=m Rmatrix=[0.84] Xmatrix=[0.84]
New linecode.mtx169 nphases=1 Units=m Rmatrix=[0.82] Xmatrix=[0.82]
New linecode.mtx170 nphases=1 Units=m Rmatrix=[0.09] Xmatrix=[0.09]
New linecode.mtx171 nphases=1 Units=m Rmatrix=[0.21] Xmatrix=[0.21]
New linecode.mtx172 nphases=1 Units=m Rmatrix=[0.93] Xmatrix=[0.93]
New linecode.mtx173 nphases=1 Units=m Rmatrix=[0.46] Xmatrix=[0.46]
New linecode.mtx174 nphases=1 Units=m Rmatrix=[0.29] Xmatrix=[0.29]
New linecode.mtx175 nphases=1 Units=m Rmatrix=[0.56] Xmatrix=[0.56]
New linecode.mtx176 nphases=1 Units=m Rmatrix=[0.25] Xmatrix=[0.25]
New linecode.mtx177 nphases=1 Units=m Rmatrix=[0.20] Xmatrix=[0.20]
New linecode.mtx178 nphases=1 Units=m Rmatrix=[0.18] Xmatrix=[0.18]
New linecode.mtx179 nphases=1 Units=m Rmatrix=[0.85] Xmatrix=[0.85]
New linecode.mtx180 nphases=1 Units=m Rmatrix=[0.65] Xmatrix=[0.65]
New linecode.mtx181 nphases=1 Units=m Rmatrix=[0.65] Xmatrix=[0.65]
New linecode.mtx182 nphases=1 Units=m Rmatrix=[0.93] Xmatrix=[0.93]
New linecode.mtx183 nphases=1 Units=m Rmatrix=[0.45] Xmatrix=[0.45]
New linecode.mtx184 nphases=1 Units=m Rmatrix=[0.74] Xmatrix=[0.74]
New linecode.mtx185 nphases=1 Units=m Rmatrix=[0.73] Xmatrix=[0.73]
New linecode.mtx186 nphases=1 Units=m Rmatrix=[0.41] Xmatrix=[0.41]
New linecode.mtx187 nphases=1 Units=m Rmatrix=[0.22] Xmatrix=[0.22]
New linecode.mtx188 nphases=1 Units=m Rmatrix=[0.59] Xmatrix=[0.59]
New linecode.mtx189 nphases=1 Units=m Rmatrix=[0.98] Xmatrix=[0.98]
New linecode.mtx190 nphases=1 Units=m Rmatrix=[0.33] Xmatrix=[0.33]
New linecode.mtx191 nphases=1 Units=m Rmatrix=[0.48] Xmatrix=[0.48]
New linecode.mtx192 nphases=1 Units=m Rmatrix=[0.87] Xmatrix=[0.87]
New linecode.mtx193 nphases=1 Units=m Rmatrix=[0.33] Xmatrix=[0.33]
New linecode.mtx194 nphases=1 Units=m Rmatrix=[0.68] Xmatrix=[0.68]
New linecode.mtx195 nphases=1 Units=m Rmatrix=[0.67] Xmatrix=[0.67]
New linecode.mtx196 nphases=1 Units=m Rmatrix=[0.68] Xmatrix=[0.68]
New linecode.mtx197 nphases=1 Units=m Rmatrix=[0.85] Xmatrix=[0.85]
New linecode.mtx198 nphases=1 Units=m Rmatrix=[0.13] Xmatrix=[0.13]
New linecode.mtx199 nphases=1 Units=m Rmatrix=[0.22] Xmatrix=[0.22]
New linecode.mtx200 nphases=1 Units=m Rmatrix=[0.07] Xmatrix=[0.07]
...

!LOAD DEFINITIONS  -- kV is vm_nom and kW is pd_nom
New Load.407  Bus1=407.1  Phases=1 Conn=POWER  Model=1   kW=299 kvar=299 vminpu=0 vmaxpu=12
New Load.153  Bus1=153.1  Phases=1 Conn=POWER  Model=1   kW=944 kvar=944 vminpu=0 vmaxpu=12
New Load.519  Bus1=519.1  Phases=1 Conn=POWER  Model=1   kW=360 kvar=360 vminpu=0 vmaxpu=12
New Load.371  Bus1=371.1  Phases=1 Conn=POWER  Model=1   kW=157 kvar=157 vminpu=0 vmaxpu=12
New Load.464  Bus1=464.1  Phases=1 Conn=POWER  Model=1   kW=278 kvar=278 vminpu=0 vmaxpu=12
New Load.475  Bus1=475.1  Phases=1 Conn=POWER  Model=1   kW=733 kvar=733 vminpu=0 vmaxpu=12
New Load.447  Bus1=447.1  Phases=1 Conn=POWER  Model=1   kW=432 kvar=432 vminpu=0 vmaxpu=12
New Load.335  Bus1=335.1  Phases=1 Conn=POWER  Model=1   kW=255 kvar=255 vminpu=0 vmaxpu=12
New Load.362  Bus1=362.1  Phases=1 Conn=POWER  Model=1   kW=465 kvar=465 vminpu=0 vmaxpu=12
New Load.505  Bus1=505.1  Phases=1 Conn=POWER  Model=1   kW=552 kvar=552 vminpu=0 vmaxpu=12
New Load.491  Bus1=491.1  Phases=1 Conn=POWER  Model=1   kW=124 kvar=124 vminpu=0 vmaxpu=12
New Load.326  Bus1=326.1  Phases=1 Conn=POWER  Model=1   kW=821 kvar=821 vminpu=0 vmaxpu=12
New Load.299  Bus1=299.1  Phases=1 Conn=POWER  Model=1   kW=324 kvar=324 vminpu=0 vmaxpu=12
New Load.168  Bus1=168.1  Phases=1 Conn=POWER  Model=1   kW=219 kvar=219 vminpu=0 vmaxpu=12
New Load.403  Bus1=403.1  Phases=1 Conn=POWER  Model=1   kW=518 kvar=518 vminpu=0 vmaxpu=12
New Load.159  Bus1=159.1  Phases=1 Conn=POWER  Model=1   kW=490 kvar=490 vminpu=0 vmaxpu=12
New Load.228  Bus1=228.1  Phases=1 Conn=POWER  Model=1   kW=839 kvar=839 vminpu=0 vmaxpu=12
New Load.332  Bus1=332.1  Phases=1 Conn=POWER  Model=1   kW=256 kvar=256 vminpu=0 vmaxpu=12
New Load.190  Bus1=190.1  Phases=1 Conn=POWER  Model=1   kW=400 kvar=400 vminpu=0 vmaxpu=12
New Load.270  Bus1=270.1  Phases=1 Conn=POWER  Model=1   kW=794 kvar=794 vminpu=0 vmaxpu=12
New Load.227  Bus1=227.1  Phases=1 Conn=POWER  Model=1   kW=644 kvar=644 vminpu=0 vmaxpu=12
New Load.476  Bus1=476.1  Phases=1 Conn=POWER  Model=1   kW=868 kvar=868 vminpu=0 vmaxpu=12
New Load.223  Bus1=223.1  Phases=1 Conn=POWER  Model=1   kW=523 kvar=523 vminpu=0 vmaxpu=12
New Load.453  Bus1=453.1  Phases=1 Conn=POWER  Model=1   kW=468 kvar=468 vminpu=0 vmaxpu=12
New Load.467  Bus1=467.1  Phases=1 Conn=POWER  Model=1   kW=883 kvar=883 vminpu=0 vmaxpu=12
New Load.297  Bus1=297.1  Phases=1 Conn=POWER  Model=1   kW=402 kvar=402 vminpu=0 vmaxpu=12
New Load.289  Bus1=289.1  Phases=1 Conn=POWER  Model=1   kW=903 kvar=903 vminpu=0 vmaxpu=12
New Load.250  Bus1=250.1  Phases=1 Conn=POWER  Model=1   kW=338 kvar=338 vminpu=0 vmaxpu=12
New Load.230  Bus1=230.1  Phases=1 Conn=POWER  Model=1   kW=734 kvar=734 vminpu=0 vmaxpu=12
New Load.449  Bus1=449.1  Phases=1 Conn=POWER  Model=1   kW=448 kvar=448 vminpu=0 vmaxpu=12
New Load.394  Bus1=394.1  Phases=1 Conn=POWER  Model=1   kW=835 kvar=835 vminpu=0 vmaxpu=12
New Load.258  Bus1=258.1  Phases=1 Conn=POWER  Model=1   kW=651 kvar=651 vminpu=0 vmaxpu=12
New Load.387  Bus1=387.1  Phases=1 Conn=POWER  Model=1   kW=437 kvar=437 vminpu=0 vmaxpu=12
New Load.204  Bus1=204.1  Phases=1 Conn=POWER  Model=1   kW=307 kvar=307 vminpu=0 vmaxpu=12
New Load.416  Bus1=416.1  Phases=1 Conn=POWER  Model=1   kW=721 kvar=721 vminpu=0 vmaxpu=12
New Load.160  Bus1=160.1  Phases=1 Conn=POWER  Model=1   kW=142 kvar=142 vminpu=0 vmaxpu=12
New Load.450  Bus1=450.1  Phases=1 Conn=POWER  Model=1   kW=187 kvar=187 vminpu=0 vmaxpu=12
New Load.149  Bus1=149.1  Phases=1 Conn=POWER  Model=1   kW=853 kvar=853 vminpu=0 vmaxpu=12
New Load.359  Bus1=359.1  Phases=1 Conn=POWER  Model=1   kW=995 kvar=995 vminpu=0 vmaxpu=12
New Load.184  Bus1=184.1  Phases=1 Conn=POWER  Model=1   kW=777 kvar=777 vminpu=0 vmaxpu=12
New Load.122  Bus1=122.1  Phases=1 Conn=POWER  Model=1   kW=279 kvar=279 vminpu=0 vmaxpu=12
New Load.253  Bus1=253.1  Phases=1 Conn=POWER  Model=1   kW=134 kvar=134 vminpu=0 vmaxpu=12
New Load.302  Bus1=302.1  Phases=1 Conn=POWER  Model=1   kW=269 kvar=269 vminpu=0 vmaxpu=12
New Load.175  Bus1=175.1  Phases=1 Conn=POWER  Model=1   kW=718 kvar=718 vminpu=0 vmaxpu=12
New Load.415  Bus1=415.1  Phases=1 Conn=POWER  Model=1   kW=134 kvar=134 vminpu=0 vmaxpu=12
New Load.143  Bus1=143.1  Phases=1 Conn=POWER  Model=1   kW=914 kvar=914 vminpu=0 vmaxpu=12
New Load.112  Bus1=112.1  Phases=1 Conn=POWER  Model=1   kW=989 kvar=989 vminpu=0 vmaxpu=12
New Load.372  Bus1=372.1  Phases=1 Conn=POWER  Model=1   kW=308 kvar=308 vminpu=0 vmaxpu=12
New Load.501  Bus1=501.1  Phases=1 Conn=POWER  Model=1   kW=480 kvar=480 vminpu=0 vmaxpu=12
New Load.293  Bus1=293.1  Phases=1 Conn=POWER  Model=1   kW=737 kvar=737 vminpu=0 vmaxpu=12
New Load.421  Bus1=421.1  Phases=1 Conn=POWER  Model=1   kW=300 kvar=300 vminpu=0 vmaxpu=12
New Load.137  Bus1=137.1  Phases=1 Conn=POWER  Model=1   kW=529 kvar=529 vminpu=0 vmaxpu=12
New Load.323  Bus1=323.1  Phases=1 Conn=POWER  Model=1   kW=362 kvar=362 vminpu=0 vmaxpu=12
New Load.243  Bus1=243.1  Phases=1 Conn=POWER  Model=1   kW=103 kvar=103 vminpu=0 vmaxpu=12
New Load.172  Bus1=172.1  Phases=1 Conn=POWER  Model=1   kW=468 kvar=468 vminpu=0 vmaxpu=12
New Load.514  Bus1=514.1  Phases=1 Conn=POWER  Model=1   kW=251 kvar=251 vminpu=0 vmaxpu=12
New Load.363  Bus1=363.1  Phases=1 Conn=POWER  Model=1   kW=598 kvar=598 vminpu=0 vmaxpu=12
New Load.350  Bus1=350.1  Phases=1 Conn=POWER  Model=1   kW=208 kvar=208 vminpu=0 vmaxpu=12
New Load.292  Bus1=292.1  Phases=1 Conn=POWER  Model=1   kW=250 kvar=250 vminpu=0 vmaxpu=12
New Load.192  Bus1=192.1  Phases=1 Conn=POWER  Model=1   kW=749 kvar=749 vminpu=0 vmaxpu=12
New Load.357  Bus1=357.1  Phases=1 Conn=POWER  Model=1   kW=811 kvar=811 vminpu=0 vmaxpu=12
New Load.252  Bus1=252.1  Phases=1 Conn=POWER  Model=1   kW=490 kvar=490 vminpu=0 vmaxpu=12
New Load.417  Bus1=417.1  Phases=1 Conn=POWER  Model=1   kW=283 kvar=283 vminpu=0 vmaxpu=12
New Load.462  Bus1=462.1  Phases=1 Conn=POWER  Model=1   kW=755 kvar=755 vminpu=0 vmaxpu=12
New Load.426  Bus1=426.1  Phases=1 Conn=POWER  Model=1   kW=503 kvar=503 vminpu=0 vmaxpu=12
New Load.167  Bus1=167.1  Phases=1 Conn=POWER  Model=1   kW=509 kvar=509 vminpu=0 vmaxpu=12
New Load.127  Bus1=127.1  Phases=1 Conn=POWER  Model=1   kW=588 kvar=588 vminpu=0 vmaxpu=12
New Load.123  Bus1=123.1  Phases=1 Conn=POWER  Model=1   kW=595 kvar=595 vminpu=0 vmaxpu=12
New Load.456  Bus1=456.1  Phases=1 Conn=POWER  Model=1   kW=806 kvar=806 vminpu=0 vmaxpu=12
New Load.177  Bus1=177.1  Phases=1 Conn=POWER  Model=1   kW=752 kvar=752 vminpu=0 vmaxpu=12
New Load.254  Bus1=254.1  Phases=1 Conn=POWER  Model=1   kW=548 kvar=548 vminpu=0 vmaxpu=12
New Load.510  Bus1=510.1  Phases=1 Conn=POWER  Model=1   kW=602 kvar=602 vminpu=0 vmaxpu=12
New Load.257  Bus1=257.1  Phases=1 Conn=POWER  Model=1   kW=245 kvar=245 vminpu=0 vmaxpu=12
New Load.300  Bus1=300.1  Phases=1 Conn=POWER  Model=1   kW=316 kvar=316 vminpu=0 vmaxpu=12
New Load.179  Bus1=179.1  Phases=1 Conn=POWER  Model=1   kW=633 kvar=633 vminpu=0 vmaxpu=12
New Load.396  Bus1=396.1  Phases=1 Conn=POWER  Model=1   kW=456 kvar=456 vminpu=0 vmaxpu=12
New Load.495  Bus1=495.1  Phases=1 Conn=POWER  Model=1   kW=543 kvar=543 vminpu=0 vmaxpu=12
New Load.260  Bus1=260.1  Phases=1 Conn=POWER  Model=1   kW=532 kvar=532 vminpu=0 vmaxpu=12
New Load.239  Bus1=239.1  Phases=1 Conn=POWER  Model=1   kW=925 kvar=925 vminpu=0 vmaxpu=12
New Load.423  Bus1=423.1  Phases=1 Conn=POWER  Model=1   kW=283 kvar=283 vminpu=0 vmaxpu=12
New Load.317  Bus1=317.1  Phases=1 Conn=POWER  Model=1   kW=221 kvar=221 vminpu=0 vmaxpu=12
New Load.197  Bus1=197.1  Phases=1 Conn=POWER  Model=1   kW=468 kvar=468 vminpu=0 vmaxpu=12
New Load.131  Bus1=131.1  Phases=1 Conn=POWER  Model=1   kW=186 kvar=186 vminpu=0 vmaxpu=12
New Load.488  Bus1=488.1  Phases=1 Conn=POWER  Model=1   kW=895 kvar=895 vminpu=0 vmaxpu=12
New Load.401  Bus1=401.1  Phases=1 Conn=POWER  Model=1   kW=381 kvar=381 vminpu=0 vmaxpu=12
New Load.276  Bus1=276.1  Phases=1 Conn=POWER  Model=1   kW=932 kvar=932 vminpu=0 vmaxpu=12
New Load.463  Bus1=463.1  Phases=1 Conn=POWER  Model=1   kW=500 kvar=500 vminpu=0 vmaxpu=12
New Load.365  Bus1=365.1  Phases=1 Conn=POWER  Model=1   kW=761 kvar=761 vminpu=0 vmaxpu=12
New Load.458  Bus1=458.1  Phases=1 Conn=POWER  Model=1   kW=892 kvar=892 vminpu=0 vmaxpu=12
New Load.316  Bus1=316.1  Phases=1 Conn=POWER  Model=1   kW=765 kvar=765 vminpu=0 vmaxpu=12
New Load.494  Bus1=494.1  Phases=1 Conn=POWER  Model=1   kW=843 kvar=843 vminpu=0 vmaxpu=12
New Load.263  Bus1=263.1  Phases=1 Conn=POWER  Model=1   kW=164 kvar=164 vminpu=0 vmaxpu=12
New Load.244  Bus1=244.1  Phases=1 Conn=POWER  Model=1   kW=675 kvar=675 vminpu=0 vmaxpu=12
New Load.295  Bus1=295.1  Phases=1 Conn=POWER  Model=1   kW=989 kvar=989 vminpu=0 vmaxpu=12
New Load.139  Bus1=139.1  Phases=1 Conn=POWER  Model=1   kW=217 kvar=217 vminpu=0 vmaxpu=12
New Load.181  Bus1=181.1  Phases=1 Conn=POWER  Model=1   kW=437 kvar=437 vminpu=0 vmaxpu=12
New Load.386  Bus1=386.1  Phases=1 Conn=POWER  Model=1   kW=884 kvar=884 vminpu=0 vmaxpu=12
New Load.436  Bus1=436.1  Phases=1 Conn=POWER  Model=1   kW=749 kvar=749 vminpu=0 vmaxpu=12
New Load.368  Bus1=368.1  Phases=1 Conn=POWER  Model=1   kW=226 kvar=226 vminpu=0 vmaxpu=12
New Load.440  Bus1=440.1  Phases=1 Conn=POWER  Model=1   kW=843 kvar=843 vminpu=0 vmaxpu=12
New Load.413  Bus1=413.1  Phases=1 Conn=POWER  Model=1   kW=524 kvar=524 vminpu=0 vmaxpu=12
New Load.105  Bus1=105.1  Phases=1 Conn=POWER  Model=1   kW=861 kvar=861 vminpu=0 vmaxpu=12
New Load.309  Bus1=309.1  Phases=1 Conn=POWER  Model=1   kW=179 kvar=179 vminpu=0 vmaxpu=12
New Load.400  Bus1=400.1  Phases=1 Conn=POWER  Model=1   kW=175 kvar=175 vminpu=0 vmaxpu=12
New Load.480  Bus1=480.1  Phases=1 Conn=POWER  Model=1   kW=169 kvar=169 vminpu=0 vmaxpu=12
New Load.482  Bus1=482.1  Phases=1 Conn=POWER  Model=1   kW=800 kvar=800 vminpu=0 vmaxpu=12
New Load.296  Bus1=296.1  Phases=1 Conn=POWER  Model=1   kW=316 kvar=316 vminpu=0 vmaxpu=12
New Load.392  Bus1=392.1  Phases=1 Conn=POWER  Model=1   kW=998 kvar=998 vminpu=0 vmaxpu=12
New Load.503  Bus1=503.1  Phases=1 Conn=POWER  Model=1   kW=251 kvar=251 vminpu=0 vmaxpu=12
New Load.460  Bus1=460.1  Phases=1 Conn=POWER  Model=1   kW=714 kvar=714 vminpu=0 vmaxpu=12
New Load.162  Bus1=162.1  Phases=1 Conn=POWER  Model=1   kW=898 kvar=898 vminpu=0 vmaxpu=12
New Load.303  Bus1=303.1  Phases=1 Conn=POWER  Model=1   kW=378 kvar=378 vminpu=0 vmaxpu=12
New Load.422  Bus1=422.1  Phases=1 Conn=POWER  Model=1   kW=232 kvar=232 vminpu=0 vmaxpu=12
New Load.208  Bus1=208.1  Phases=1 Conn=POWER  Model=1   kW=533 kvar=533 vminpu=0 vmaxpu=12
New Load.214  Bus1=214.1  Phases=1 Conn=POWER  Model=1   kW=638 kvar=638 vminpu=0 vmaxpu=12
New Load.120  Bus1=120.1  Phases=1 Conn=POWER  Model=1   kW=349 kvar=349 vminpu=0 vmaxpu=12
New Load.224  Bus1=224.1  Phases=1 Conn=POWER  Model=1   kW=134 kvar=134 vminpu=0 vmaxpu=12
New Load.117  Bus1=117.1  Phases=1 Conn=POWER  Model=1   kW=275 kvar=275 vminpu=0 vmaxpu=12
New Load.255  Bus1=255.1  Phases=1 Conn=POWER  Model=1   kW=631 kvar=631 vminpu=0 vmaxpu=12
New Load.499  Bus1=499.1  Phases=1 Conn=POWER  Model=1   kW=695 kvar=695 vminpu=0 vmaxpu=12
New Load.178  Bus1=178.1  Phases=1 Conn=POWER  Model=1   kW=859 kvar=859 vminpu=0 vmaxpu=12
New Load.275  Bus1=275.1  Phases=1 Conn=POWER  Model=1   kW=377 kvar=377 vminpu=0 vmaxpu=12
New Load.496  Bus1=496.1  Phases=1 Conn=POWER  Model=1   kW=881 kvar=881 vminpu=0 vmaxpu=12
New Load.182  Bus1=182.1  Phases=1 Conn=POWER  Model=1   kW=951 kvar=951 vminpu=0 vmaxpu=12
New Load.176  Bus1=176.1  Phases=1 Conn=POWER  Model=1   kW=842 kvar=842 vminpu=0 vmaxpu=12
New Load.225  Bus1=225.1  Phases=1 Conn=POWER  Model=1   kW=568 kvar=568 vminpu=0 vmaxpu=12
New Load.195  Bus1=195.1  Phases=1 Conn=POWER  Model=1   kW=102 kvar=102 vminpu=0 vmaxpu=12
New Load.516  Bus1=516.1  Phases=1 Conn=POWER  Model=1   kW=744 kvar=744 vminpu=0 vmaxpu=12
New Load.286  Bus1=286.1  Phases=1 Conn=POWER  Model=1   kW=763 kvar=763 vminpu=0 vmaxpu=12
New Load.249  Bus1=249.1  Phases=1 Conn=POWER  Model=1   kW=463 kvar=463 vminpu=0 vmaxpu=12
New Load.485  Bus1=485.1  Phases=1 Conn=POWER  Model=1   kW=307 kvar=307 vminpu=0 vmaxpu=12
New Load.442  Bus1=442.1  Phases=1 Conn=POWER  Model=1   kW=360 kvar=360 vminpu=0 vmaxpu=12
New Load.161  Bus1=161.1  Phases=1 Conn=POWER  Model=1   kW=349 kvar=349 vminpu=0 vmaxpu=12
New Load.202  Bus1=202.1  Phases=1 Conn=POWER  Model=1   kW=264 kvar=264 vminpu=0 vmaxpu=12
New Load.346  Bus1=346.1  Phases=1 Conn=POWER  Model=1   kW=888 kvar=888 vminpu=0 vmaxpu=12
New Load.389  Bus1=389.1  Phases=1 Conn=POWER  Model=1   kW=915 kvar=915 vminpu=0 vmaxpu=12
New Load.459  Bus1=459.1  Phases=1 Conn=POWER  Model=1   kW=319 kvar=319 vminpu=0 vmaxpu=12
New Load.465  Bus1=465.1  Phases=1 Conn=POWER  Model=1   kW=241 kvar=241 vminpu=0 vmaxpu=12
New Load.146  Bus1=146.1  Phases=1 Conn=POWER  Model=1   kW=463 kvar=463 vminpu=0 vmaxpu=12
New Load.142  Bus1=142.1  Phases=1 Conn=POWER  Model=1   kW=369 kvar=369 vminpu=0 vmaxpu=12
New Load.219  Bus1=219.1  Phases=1 Conn=POWER  Model=1   kW=439 kvar=439 vminpu=0 vmaxpu=12
New Load.256  Bus1=256.1  Phases=1 Conn=POWER  Model=1   kW=256 kvar=256 vminpu=0 vmaxpu=12
New Load.291  Bus1=291.1  Phases=1 Conn=POWER  Model=1   kW=574 kvar=574 vminpu=0 vmaxpu=12
New Load.203  Bus1=203.1  Phases=1 Conn=POWER  Model=1   kW=789 kvar=789 vminpu=0 vmaxpu=12
New Load.360  Bus1=360.1  Phases=1 Conn=POWER  Model=1   kW=963 kvar=963 vminpu=0 vmaxpu=12
New Load.308  Bus1=308.1  Phases=1 Conn=POWER  Model=1   kW=227 kvar=227 vminpu=0 vmaxpu=12
New Load.432  Bus1=432.1  Phases=1 Conn=POWER  Model=1   kW=983 kvar=983 vminpu=0 vmaxpu=12
New Load.113  Bus1=113.1  Phases=1 Conn=POWER  Model=1   kW=571 kvar=571 vminpu=0 vmaxpu=12
New Load.418  Bus1=418.1  Phases=1 Conn=POWER  Model=1   kW=222 kvar=222 vminpu=0 vmaxpu=12
New Load.110  Bus1=110.1  Phases=1 Conn=POWER  Model=1   kW=203 kvar=203 vminpu=0 vmaxpu=12
New Load.492  Bus1=492.1  Phases=1 Conn=POWER  Model=1   kW=109 kvar=109 vminpu=0 vmaxpu=12
New Load.445  Bus1=445.1  Phases=1 Conn=POWER  Model=1   kW=386 kvar=386 vminpu=0 vmaxpu=12
New Load.322  Bus1=322.1  Phases=1 Conn=POWER  Model=1   kW=756 kvar=756 vminpu=0 vmaxpu=12
New Load.431  Bus1=431.1  Phases=1 Conn=POWER  Model=1   kW=918 kvar=918 vminpu=0 vmaxpu=12
New Load.269  Bus1=269.1  Phases=1 Conn=POWER  Model=1   kW=128 kvar=128 vminpu=0 vmaxpu=12
New Load.157  Bus1=157.1  Phases=1 Conn=POWER  Model=1   kW=659 kvar=659 vminpu=0 vmaxpu=12
New Load.520  Bus1=520.1  Phases=1 Conn=POWER  Model=1   kW=605 kvar=605 vminpu=0 vmaxpu=12
New Load.231  Bus1=231.1  Phases=1 Conn=POWER  Model=1   kW=995 kvar=995 vminpu=0 vmaxpu=12
New Load.165  Bus1=165.1  Phases=1 Conn=POWER  Model=1   kW=121 kvar=121 vminpu=0 vmaxpu=12
New Load.384  Bus1=384.1  Phases=1 Conn=POWER  Model=1   kW=425 kvar=425 vminpu=0 vmaxpu=12
New Load.327  Bus1=327.1  Phases=1 Conn=POWER  Model=1   kW=718 kvar=718 vminpu=0 vmaxpu=12
New Load.173  Bus1=173.1  Phases=1 Conn=POWER  Model=1   kW=599 kvar=599 vminpu=0 vmaxpu=12
New Load.284  Bus1=284.1  Phases=1 Conn=POWER  Model=1   kW=960 kvar=960 vminpu=0 vmaxpu=12
New Load.200  Bus1=200.1  Phases=1 Conn=POWER  Model=1   kW=560 kvar=560 vminpu=0 vmaxpu=12
New Load.171  Bus1=171.1  Phases=1 Conn=POWER  Model=1   kW=986 kvar=986 vminpu=0 vmaxpu=12
New Load.233  Bus1=233.1  Phases=1 Conn=POWER  Model=1   kW=614 kvar=614 vminpu=0 vmaxpu=12
New Load.428  Bus1=428.1  Phases=1 Conn=POWER  Model=1   kW=348 kvar=348 vminpu=0 vmaxpu=12
New Load.345  Bus1=345.1  Phases=1 Conn=POWER  Model=1   kW=553 kvar=553 vminpu=0 vmaxpu=12
New Load.273  Bus1=273.1  Phases=1 Conn=POWER  Model=1   kW=270 kvar=270 vminpu=0 vmaxpu=12
New Load.502  Bus1=502.1  Phases=1 Conn=POWER  Model=1   kW=267 kvar=267 vminpu=0 vmaxpu=12
New Load.130  Bus1=130.1  Phases=1 Conn=POWER  Model=1   kW=926 kvar=926 vminpu=0 vmaxpu=12
New Load.319  Bus1=319.1  Phases=1 Conn=POWER  Model=1   kW=580 kvar=580 vminpu=0 vmaxpu=12
New Load.312  Bus1=312.1  Phases=1 Conn=POWER  Model=1   kW=736 kvar=736 vminpu=0 vmaxpu=12
New Load.478  Bus1=478.1  Phases=1 Conn=POWER  Model=1   kW=657 kvar=657 vminpu=0 vmaxpu=12
New Load.247  Bus1=247.1  Phases=1 Conn=POWER  Model=1   kW=560 kvar=560 vminpu=0 vmaxpu=12
New Load.108  Bus1=108.1  Phases=1 Conn=POWER  Model=1   kW=660 kvar=660 vminpu=0 vmaxpu=12
New Load.500  Bus1=500.1  Phases=1 Conn=POWER  Model=1   kW=660 kvar=660 vminpu=0 vmaxpu=12
New Load.344  Bus1=344.1  Phases=1 Conn=POWER  Model=1   kW=170 kvar=170 vminpu=0 vmaxpu=12
New Load.457  Bus1=457.1  Phases=1 Conn=POWER  Model=1   kW=289 kvar=289 vminpu=0 vmaxpu=12
New Load.385  Bus1=385.1  Phases=1 Conn=POWER  Model=1   kW=947 kvar=947 vminpu=0 vmaxpu=12
New Load.251  Bus1=251.1  Phases=1 Conn=POWER  Model=1   kW=485 kvar=485 vminpu=0 vmaxpu=12
New Load.444  Bus1=444.1  Phases=1 Conn=POWER  Model=1   kW=282 kvar=282 vminpu=0 vmaxpu=12
New Load.170  Bus1=170.1  Phases=1 Conn=POWER  Model=1   kW=337 kvar=337 vminpu=0 vmaxpu=12
New Load.151  Bus1=151.1  Phases=1 Conn=POWER  Model=1   kW=448 kvar=448 vminpu=0 vmaxpu=12
New Load.147  Bus1=147.1  Phases=1 Conn=POWER  Model=1   kW=645 kvar=645 vminpu=0 vmaxpu=12
New Load.454  Bus1=454.1  Phases=1 Conn=POWER  Model=1   kW=839 kvar=839 vminpu=0 vmaxpu=12
New Load.452  Bus1=452.1  Phases=1 Conn=POWER  Model=1   kW=835 kvar=835 vminpu=0 vmaxpu=12
New Load.342  Bus1=342.1  Phases=1 Conn=POWER  Model=1   kW=411 kvar=411 vminpu=0 vmaxpu=12
New Load.438  Bus1=438.1  Phases=1 Conn=POWER  Model=1   kW=377 kvar=377 vminpu=0 vmaxpu=12
New Load.186  Bus1=186.1  Phases=1 Conn=POWER  Model=1   kW=472 kvar=472 vminpu=0 vmaxpu=12
New Load.180  Bus1=180.1  Phases=1 Conn=POWER  Model=1   kW=897 kvar=897 vminpu=0 vmaxpu=12
New Load.135  Bus1=135.1  Phases=1 Conn=POWER  Model=1   kW=521 kvar=521 vminpu=0 vmaxpu=12
New Load.393  Bus1=393.1  Phases=1 Conn=POWER  Model=1   kW=661 kvar=661 vminpu=0 vmaxpu=12
New Load.262  Bus1=262.1  Phases=1 Conn=POWER  Model=1   kW=474 kvar=474 vminpu=0 vmaxpu=12
New Load.103  Bus1=103.1  Phases=1 Conn=POWER  Model=1   kW=342 kvar=342 vminpu=0 vmaxpu=12
New Load.408  Bus1=408.1  Phases=1 Conn=POWER  Model=1   kW=340 kvar=340 vminpu=0 vmaxpu=12
New Load.405  Bus1=405.1  Phases=1 Conn=POWER  Model=1   kW=818 kvar=818 vminpu=0 vmaxpu=12
New Load.109  Bus1=109.1  Phases=1 Conn=POWER  Model=1   kW=752 kvar=752 vminpu=0 vmaxpu=12
New Load.320  Bus1=320.1  Phases=1 Conn=POWER  Model=1   kW=925 kvar=925 vminpu=0 vmaxpu=12
New Load.264  Bus1=264.1  Phases=1 Conn=POWER  Model=1   kW=593 kvar=593 vminpu=0 vmaxpu=12
...

!ADD GENERATORS
New Generator.376 Phases=1 Bus1=376.1  kw=4.737867e+04 kvar=4.737867e+04 !! Flap 2
New Generator.242 Phases=1 Bus1=242.1  kw=4.737867e+04 kvar=4.737867e+04 
New Generator.101 Phases=1 Bus1=101.1  kw=4.737867e+04 kvar=4.737867e+04  
New Generator.277 Phases=1 Bus1=277.1  kw=4.737867e+04 kvar=4.737867e+04 !! Flap 6
!New Generator.246 Phases=1 Bus1=246.1  kw=4.737867e+04 kvar=4.737867e+04 !! Flap 1
New Generator.361 Phases=1 Bus1=361.1  kw=4.737867e+04 kvar=4.737867e+04 !! Flap 3
New Generator.248 Phases=1 Bus1=248.1  kw=4.737867e+04 kvar=4.737867e+04 !! Flap 4
New Generator.304 Phases=1 Bus1=304.1  kw=4.737867e+04 kvar=4.737867e+04 !! Flap 7
New Generator.318 Phases=1 Bus1=318.1  kw=4.737867e+04 kvar=4.737867e+04 !! Flap 8
New Generator.355 Phases=1 Bus1=355.1  kw=4.737867e+04 kvar=4.737867e+04 !! Flap 5

New Generator.7777 Phases=1 Bus1=7777.1  kw=0 kvar=0

!SWITCH DEFINITIONS
!New Line.7777246    Phases=1 Bus1=7777.1    Bus2=246.1  Switch=y Enabled=y  LineCode=mtx001  !! Flap 1
New Line.7777376    Phases=1 Bus1=7777.1    Bus2=376.1  Switch=y Enabled=y  LineCode=mtx001  !! Flap 2
New Line.7777361    Phases=1 Bus1=7777.1    Bus2=361.1  Switch=y Enabled=y  LineCode=mtx001  !! Flap 3
New Line.7777248    Phases=1 Bus1=7777.1    Bus2=248.1  Switch=y Enabled=y  LineCode=mtx001  !! Flap 4
New Line.7777355    Phases=1 Bus1=7777.1    Bus2=355.1  Switch=y Enabled=y  LineCode=mtx001  !! Flap 5
New Line.7777277    Phases=1 Bus1=7777.1    Bus2=277.1  Switch=y Enabled=y  LineCode=mtx001  !! Flap 6
New Line.7777304    Phases=1 Bus1=7777.1    Bus2=304.1  Switch=y Enabled=y  LineCode=mtx001  !! Flap 7
New Line.7777318    Phases=1 Bus1=7777.1    Bus2=318.1  Switch=y Enabled=y  LineCode=mtx001  !! Flap 8

New Line.407408    Phases=1 Bus1=407.1    Bus2=408.1  Switch=y Enabled=y  LineCode=mtx001 !! Flap 2
New Line.407405    Phases=1 Bus1=407.1    Bus2=405.1  Switch=y Enabled=y  LineCode=mtx002 !! Flap 2
New Line.407409    Phases=1 Bus1=407.1    Bus2=409.1  Switch=y Enabled=y  LineCode=mtx003 !! Flap 2
New Line.153151    Phases=1 Bus1=153.1    Bus2=151.1  Switch=y Enabled=y  LineCode=mtx004
New Line.153155    Phases=1 Bus1=153.1    Bus2=155.1  Switch=y Enabled=y  LineCode=mtx005
New Line.153152    Phases=1 Bus1=153.1    Bus2=152.1  Switch=y Enabled=y  LineCode=mtx006
New Line.371372    Phases=1 Bus1=371.1    Bus2=372.1  Switch=y Enabled=y  LineCode=mtx007 !! Flap 2
New Line.371369    Phases=1 Bus1=371.1    Bus2=369.1  Switch=y Enabled=y  LineCode=mtx008 !! Flap 2
New Line.371370    Phases=1 Bus1=371.1    Bus2=370.1  Switch=y Enabled=y  LineCode=mtx009 !! Flap 2
New Line.464462    Phases=1 Bus1=464.1    Bus2=462.1  Switch=y Enabled=y  LineCode=mtx010 !! Flap 7
New Line.464463    Phases=1 Bus1=464.1    Bus2=463.1  Switch=y Enabled=y  LineCode=mtx011 !! Flap 7
New Line.464465    Phases=1 Bus1=464.1    Bus2=465.1  Switch=y Enabled=y  LineCode=mtx012 !! Flap 7
New Line.475476    Phases=1 Bus1=475.1    Bus2=476.1  Switch=y Enabled=y  LineCode=mtx013 !! Flap 7
New Line.475474    Phases=1 Bus1=475.1    Bus2=474.1  Switch=y Enabled=y  LineCode=mtx014 !! Flap 7
New Line.475477    Phases=1 Bus1=475.1    Bus2=477.1  Switch=y Enabled=y  LineCode=mtx015 !! Flap 7
New Line.447445    Phases=1 Bus1=447.1    Bus2=445.1  Switch=y Enabled=y  LineCode=mtx016
New Line.447446    Phases=1 Bus1=447.1    Bus2=446.1  Switch=y Enabled=y  LineCode=mtx017
New Line.447448    Phases=1 Bus1=447.1    Bus2=448.1  Switch=y Enabled=y  LineCode=mtx018
New Line.335333    Phases=1 Bus1=335.1    Bus2=333.1  Switch=y Enabled=y  LineCode=mtx019
New Line.362364    Phases=1 Bus1=362.1    Bus2=364.1  Switch=y Enabled=y  LineCode=mtx020 !! Flap 3
New Line.505503    Phases=1 Bus1=505.1    Bus2=503.1  Switch=y Enabled=y  LineCode=mtx021
New Line.491493    Phases=1 Bus1=491.1    Bus2=493.1  Switch=y Enabled=y  LineCode=mtx022 !! Flap 8
New Line.326328    Phases=1 Bus1=326.1    Bus2=328.1  Switch=y Enabled=y  LineCode=mtx023
New Line.299297    Phases=1 Bus1=299.1    Bus2=297.1  Switch=y Enabled=y  LineCode=mtx024 !! Flap 7
New Line.299300    Phases=1 Bus1=299.1    Bus2=300.1  Switch=y Enabled=y  LineCode=mtx025 !! Flap 7
New Line.299298    Phases=1 Bus1=299.1    Bus2=298.1  Switch=y Enabled=y  LineCode=mtx026 !! Flap 7
New Line.403404    Phases=1 Bus1=403.1    Bus2=404.1  Switch=y Enabled=y  LineCode=mtx027
New Line.159161    Phases=1 Bus1=159.1    Bus2=161.1  Switch=y Enabled=y  LineCode=mtx028
New Line.159157    Phases=1 Bus1=159.1    Bus2=157.1  Switch=y Enabled=y  LineCode=mtx029
New Line.159158    Phases=1 Bus1=159.1    Bus2=158.1  Switch=y Enabled=y  LineCode=mtx030
New Line.228230    Phases=1 Bus1=228.1    Bus2=230.1  Switch=y Enabled=y  LineCode=mtx031
New Line.228226    Phases=1 Bus1=228.1    Bus2=226.1  Switch=y Enabled=y  LineCode=mtx032
New Line.332334    Phases=1 Bus1=332.1    Bus2=334.1  Switch=y Enabled=y  LineCode=mtx033
New Line.332331    Phases=1 Bus1=332.1    Bus2=331.1  Switch=y Enabled=y  LineCode=mtx034
New Line.190188    Phases=1 Bus1=190.1    Bus2=188.1  Switch=y Enabled=y  LineCode=mtx035
New Line.190189    Phases=1 Bus1=190.1    Bus2=189.1  Switch=y Enabled=y  LineCode=mtx036
New Line.270223    Phases=1 Bus1=270.1    Bus2=223.1  Switch=y Enabled=y  LineCode=mtx037
New Line.270269    Phases=1 Bus1=270.1    Bus2=269.1  Switch=y Enabled=y  LineCode=mtx038
New Line.270268    Phases=1 Bus1=270.1    Bus2=268.1  Switch=y Enabled=y  LineCode=mtx039
New Line.227228    Phases=1 Bus1=227.1    Bus2=228.1  Switch=y Enabled=y  LineCode=mtx040
New Line.227225    Phases=1 Bus1=227.1    Bus2=225.1  Switch=y Enabled=y  LineCode=mtx041
New Line.476478    Phases=1 Bus1=476.1    Bus2=478.1  Switch=y Enabled=y  LineCode=mtx042
New Line.223224    Phases=1 Bus1=223.1    Bus2=224.1  Switch=y Enabled=y  LineCode=mtx043
New Line.223221    Phases=1 Bus1=223.1    Bus2=221.1  Switch=y Enabled=y  LineCode=mtx044
New Line.223222    Phases=1 Bus1=223.1    Bus2=222.1  Switch=y Enabled=y  LineCode=mtx045
New Line.467469    Phases=1 Bus1=467.1    Bus2=469.1  Switch=y Enabled=y  LineCode=mtx046
New Line.297295    Phases=1 Bus1=297.1    Bus2=295.1  Switch=y Enabled=y  LineCode=mtx047
New Line.297296    Phases=1 Bus1=297.1    Bus2=296.1  Switch=y Enabled=y  LineCode=mtx048
New Line.289291    Phases=1 Bus1=289.1    Bus2=291.1  Switch=y Enabled=y  LineCode=mtx049
New Line.289290    Phases=1 Bus1=289.1    Bus2=290.1  Switch=y Enabled=y  LineCode=mtx050
New Line.289288    Phases=1 Bus1=289.1    Bus2=288.1  Switch=y Enabled=y  LineCode=mtx051
New Line.449447    Phases=1 Bus1=449.1    Bus2=447.1  Switch=y Enabled=y  LineCode=mtx052
New Line.449450    Phases=1 Bus1=449.1    Bus2=450.1  Switch=y Enabled=y  LineCode=mtx053
New Line.394392    Phases=1 Bus1=394.1    Bus2=392.1  Switch=y Enabled=y  LineCode=mtx054
New Line.258257    Phases=1 Bus1=258.1    Bus2=257.1  Switch=y Enabled=y  LineCode=mtx055
New Line.204501    Phases=1 Bus1=204.1    Bus2=501.1  Switch=y Enabled=y  LineCode=mtx056
New Line.416415    Phases=1 Bus1=416.1    Bus2=415.1  Switch=y Enabled=y  LineCode=mtx057
New Line.416414    Phases=1 Bus1=416.1    Bus2=414.1  Switch=y Enabled=y  LineCode=mtx058
New Line.149147    Phases=1 Bus1=149.1    Bus2=147.1  Switch=y Enabled=y  LineCode=mtx059
New Line.149148    Phases=1 Bus1=149.1    Bus2=148.1  Switch=y Enabled=y  LineCode=mtx060
New Line.184182    Phases=1 Bus1=184.1    Bus2=182.1  Switch=y Enabled=y  LineCode=mtx061
New Line.184183    Phases=1 Bus1=184.1    Bus2=183.1  Switch=y Enabled=y  LineCode=mtx062
New Line.143142    Phases=1 Bus1=143.1    Bus2=142.1  Switch=y Enabled=y  LineCode=mtx063
New Line.143141    Phases=1 Bus1=143.1    Bus2=141.1  Switch=y Enabled=y  LineCode=mtx064
New Line.143144    Phases=1 Bus1=143.1    Bus2=144.1  Switch=y Enabled=y  LineCode=mtx065
New Line.112113    Phases=1 Bus1=112.1    Bus2=113.1  Switch=y Enabled=y  LineCode=mtx066
New Line.112111    Phases=1 Bus1=112.1    Bus2=111.1  Switch=y Enabled=y  LineCode=mtx067
New Line.112114    Phases=1 Bus1=112.1    Bus2=114.1  Switch=y Enabled=y  LineCode=mtx068
New Line.501499    Phases=1 Bus1=501.1    Bus2=499.1  Switch=y Enabled=y  LineCode=mtx069
New Line.501502    Phases=1 Bus1=501.1    Bus2=502.1  Switch=y Enabled=y  LineCode=mtx070
New Line.501500    Phases=1 Bus1=501.1    Bus2=500.1  Switch=y Enabled=y  LineCode=mtx071
New Line.293464    Phases=1 Bus1=293.1    Bus2=464.1  Switch=y Enabled=y  LineCode=mtx072
New Line.172173    Phases=1 Bus1=172.1    Bus2=173.1  Switch=y Enabled=y  LineCode=mtx073
New Line.172171    Phases=1 Bus1=172.1    Bus2=171.1  Switch=y Enabled=y  LineCode=mtx074
New Line.172170    Phases=1 Bus1=172.1    Bus2=170.1  Switch=y Enabled=y  LineCode=mtx075
New Line.363362    Phases=1 Bus1=363.1    Bus2=362.1  Switch=y Enabled=y  LineCode=mtx076
New Line.363365    Phases=1 Bus1=363.1    Bus2=365.1  Switch=y Enabled=y  LineCode=mtx077
New Line.363354    Phases=1 Bus1=363.1    Bus2=354.1  Switch=y Enabled=y  LineCode=mtx078
New Line.350348    Phases=1 Bus1=350.1    Bus2=348.1  Switch=y Enabled=y  LineCode=mtx079
New Line.350349    Phases=1 Bus1=350.1    Bus2=349.1  Switch=y Enabled=y  LineCode=mtx080
New Line.292294    Phases=1 Bus1=292.1    Bus2=294.1  Switch=y Enabled=y  LineCode=mtx081
New Line.192190    Phases=1 Bus1=192.1    Bus2=190.1  Switch=y Enabled=y  LineCode=mtx082
New Line.192191    Phases=1 Bus1=192.1    Bus2=191.1  Switch=y Enabled=y  LineCode=mtx083
New Line.357359    Phases=1 Bus1=357.1    Bus2=359.1  Switch=y Enabled=y  LineCode=mtx084
New Line.357356    Phases=1 Bus1=357.1    Bus2=356.1  Switch=y Enabled=y  LineCode=mtx085
New Line.252250    Phases=1 Bus1=252.1    Bus2=250.1  Switch=y Enabled=y  LineCode=mtx086
New Line.252253    Phases=1 Bus1=252.1    Bus2=253.1  Switch=y Enabled=y  LineCode=mtx087
New Line.252254    Phases=1 Bus1=252.1    Bus2=254.1  Switch=y Enabled=y  LineCode=mtx088
New Line.417416    Phases=1 Bus1=417.1    Bus2=416.1  Switch=y Enabled=y  LineCode=mtx089
New Line.417419    Phases=1 Bus1=417.1    Bus2=419.1  Switch=y Enabled=y  LineCode=mtx090
New Line.462460    Phases=1 Bus1=462.1    Bus2=460.1  Switch=y Enabled=y  LineCode=mtx091
New Line.462461    Phases=1 Bus1=462.1    Bus2=461.1  Switch=y Enabled=y  LineCode=mtx092
New Line.426424    Phases=1 Bus1=426.1    Bus2=424.1  Switch=y Enabled=y  LineCode=mtx093
New Line.426425    Phases=1 Bus1=426.1    Bus2=425.1  Switch=y Enabled=y  LineCode=mtx094
New Line.426427    Phases=1 Bus1=426.1    Bus2=427.1  Switch=y Enabled=y  LineCode=mtx095
New Line.123122    Phases=1 Bus1=123.1    Bus2=122.1  Switch=y Enabled=y  LineCode=mtx096
New Line.123125    Phases=1 Bus1=123.1    Bus2=125.1  Switch=y Enabled=y  LineCode=mtx097
New Line.123124    Phases=1 Bus1=123.1    Bus2=124.1  Switch=y Enabled=y  LineCode=mtx098
New Line.456457    Phases=1 Bus1=456.1    Bus2=457.1  Switch=y Enabled=y  LineCode=mtx099
New Line.456454    Phases=1 Bus1=456.1    Bus2=454.1  Switch=y Enabled=y  LineCode=mtx100
New Line.456455    Phases=1 Bus1=456.1    Bus2=455.1  Switch=y Enabled=y  LineCode=mtx101
New Line.177175    Phases=1 Bus1=177.1    Bus2=175.1  Switch=y Enabled=y  LineCode=mtx102
New Line.177179    Phases=1 Bus1=177.1    Bus2=179.1  Switch=y Enabled=y  LineCode=mtx103
New Line.177176    Phases=1 Bus1=177.1    Bus2=176.1  Switch=y Enabled=y  LineCode=mtx104
New Line.254255    Phases=1 Bus1=254.1    Bus2=255.1  Switch=y Enabled=y  LineCode=mtx105 !! Flap 4
New Line.254256    Phases=1 Bus1=254.1    Bus2=256.1  Switch=y Enabled=y  LineCode=mtx106 !! Flap 4
New Line.510512    Phases=1 Bus1=510.1    Bus2=512.1  Switch=y Enabled=y  LineCode=mtx107
New Line.300302    Phases=1 Bus1=300.1    Bus2=302.1  Switch=y Enabled=y  LineCode=mtx108
New Line.396394    Phases=1 Bus1=396.1    Bus2=394.1  Switch=y Enabled=y  LineCode=mtx109
New Line.495496    Phases=1 Bus1=495.1    Bus2=496.1  Switch=y Enabled=y  LineCode=mtx110
New Line.495497    Phases=1 Bus1=495.1    Bus2=497.1  Switch=y Enabled=y  LineCode=mtx111
New Line.260258    Phases=1 Bus1=260.1    Bus2=258.1  Switch=y Enabled=y  LineCode=mtx112
New Line.260261    Phases=1 Bus1=260.1    Bus2=261.1  Switch=y Enabled=y  LineCode=mtx113
New Line.260259    Phases=1 Bus1=260.1    Bus2=259.1  Switch=y Enabled=y  LineCode=mtx114
New Line.239237    Phases=1 Bus1=239.1    Bus2=237.1  Switch=y Enabled=y  LineCode=mtx115
New Line.239241    Phases=1 Bus1=239.1    Bus2=241.1  Switch=y Enabled=y  LineCode=mtx116
New Line.239238    Phases=1 Bus1=239.1    Bus2=238.1  Switch=y Enabled=y  LineCode=mtx117
New Line.423421    Phases=1 Bus1=423.1    Bus2=421.1  Switch=y Enabled=y  LineCode=mtx118
New Line.423422    Phases=1 Bus1=423.1    Bus2=422.1  Switch=y Enabled=y  LineCode=mtx119
New Line.317488    Phases=1 Bus1=317.1    Bus2=488.1  Switch=y Enabled=y  LineCode=mtx120
New Line.197195    Phases=1 Bus1=197.1    Bus2=195.1  Switch=y Enabled=y  LineCode=mtx121
New Line.197196    Phases=1 Bus1=197.1    Bus2=196.1  Switch=y Enabled=y  LineCode=mtx122
New Line.197198    Phases=1 Bus1=197.1    Bus2=198.1  Switch=y Enabled=y  LineCode=mtx123
New Line.488487    Phases=1 Bus1=488.1    Bus2=487.1  Switch=y Enabled=y  LineCode=mtx124
New Line.488486    Phases=1 Bus1=488.1    Bus2=486.1  Switch=y Enabled=y  LineCode=mtx125
New Line.488490    Phases=1 Bus1=488.1    Bus2=490.1  Switch=y Enabled=y  LineCode=mtx126
New Line.401403    Phases=1 Bus1=401.1    Bus2=403.1  Switch=y Enabled=y  LineCode=mtx127
New Line.401400    Phases=1 Bus1=401.1    Bus2=400.1  Switch=y Enabled=y  LineCode=mtx128
New Line.401402    Phases=1 Bus1=401.1    Bus2=402.1  Switch=y Enabled=y  LineCode=mtx129
New Line.276275    Phases=1 Bus1=276.1    Bus2=275.1  Switch=y Enabled=y  LineCode=mtx130
New Line.276278    Phases=1 Bus1=276.1    Bus2=278.1  Switch=y Enabled=y  LineCode=mtx131
New Line.276274    Phases=1 Bus1=276.1    Bus2=274.1  Switch=y Enabled=y  LineCode=mtx132
New Line.365367    Phases=1 Bus1=365.1    Bus2=367.1  Switch=y Enabled=y  LineCode=mtx133
New Line.458456    Phases=1 Bus1=458.1    Bus2=456.1  Switch=y Enabled=y  LineCode=mtx134
New Line.458459    Phases=1 Bus1=458.1    Bus2=459.1  Switch=y Enabled=y  LineCode=mtx135
New Line.316317    Phases=1 Bus1=316.1    Bus2=317.1  Switch=y Enabled=y  LineCode=mtx136
New Line.316315    Phases=1 Bus1=316.1    Bus2=315.1  Switch=y Enabled=y  LineCode=mtx137
New Line.316314    Phases=1 Bus1=316.1    Bus2=314.1  Switch=y Enabled=y  LineCode=mtx138
New Line.494495    Phases=1 Bus1=494.1    Bus2=495.1  Switch=y Enabled=y  LineCode=mtx139
New Line.244243    Phases=1 Bus1=244.1    Bus2=243.1  Switch=y Enabled=y  LineCode=mtx140
New Line.244245    Phases=1 Bus1=244.1    Bus2=245.1  Switch=y Enabled=y  LineCode=mtx141
New Line.295293    Phases=1 Bus1=295.1    Bus2=293.1  Switch=y Enabled=y  LineCode=mtx142
New Line.139137    Phases=1 Bus1=139.1    Bus2=137.1  Switch=y Enabled=y  LineCode=mtx143
New Line.139140    Phases=1 Bus1=139.1    Bus2=140.1  Switch=y Enabled=y  LineCode=mtx144
New Line.386387    Phases=1 Bus1=386.1    Bus2=387.1  Switch=y Enabled=y  LineCode=mtx145
New Line.386384    Phases=1 Bus1=386.1    Bus2=384.1  Switch=y Enabled=y  LineCode=mtx146
New Line.386388    Phases=1 Bus1=386.1    Bus2=388.1  Switch=y Enabled=y  LineCode=mtx147
New Line.368366    Phases=1 Bus1=368.1    Bus2=366.1  Switch=y Enabled=y  LineCode=mtx148
New Line.440442    Phases=1 Bus1=440.1    Bus2=442.1  Switch=y Enabled=y  LineCode=mtx149
New Line.440438    Phases=1 Bus1=440.1    Bus2=438.1  Switch=y Enabled=y  LineCode=mtx150
New Line.440439    Phases=1 Bus1=440.1    Bus2=439.1  Switch=y Enabled=y  LineCode=mtx151
New Line.413412    Phases=1 Bus1=413.1    Bus2=412.1  Switch=y Enabled=y  LineCode=mtx152
New Line.105106    Phases=1 Bus1=105.1    Bus2=106.1  Switch=y Enabled=y  LineCode=mtx153
New Line.105107    Phases=1 Bus1=105.1    Bus2=107.1  Switch=y Enabled=y  LineCode=mtx154
New Line.105104    Phases=1 Bus1=105.1    Bus2=104.1  Switch=y Enabled=y  LineCode=mtx155
New Line.392390    Phases=1 Bus1=392.1    Bus2=390.1  Switch=y Enabled=y  LineCode=mtx156
New Line.460458    Phases=1 Bus1=460.1    Bus2=458.1  Switch=y Enabled=y  LineCode=mtx157
New Line.162160    Phases=1 Bus1=162.1    Bus2=160.1  Switch=y Enabled=y  LineCode=mtx158
New Line.162164    Phases=1 Bus1=162.1    Bus2=164.1  Switch=y Enabled=y  LineCode=mtx159
New Line.162163    Phases=1 Bus1=162.1    Bus2=163.1  Switch=y Enabled=y  LineCode=mtx160
New Line.303305    Phases=1 Bus1=303.1    Bus2=305.1  Switch=y Enabled=y  LineCode=mtx161
New Line.303301    Phases=1 Bus1=303.1    Bus2=301.1  Switch=y Enabled=y  LineCode=mtx162
New Line.214213    Phases=1 Bus1=214.1    Bus2=213.1  Switch=y Enabled=y  LineCode=mtx163
New Line.214215    Phases=1 Bus1=214.1    Bus2=215.1  Switch=y Enabled=y  LineCode=mtx164
New Line.120118    Phases=1 Bus1=120.1    Bus2=118.1  Switch=y Enabled=y  LineCode=mtx165
New Line.117119    Phases=1 Bus1=117.1    Bus2=119.1  Switch=y Enabled=y  LineCode=mtx166
New Line.178177    Phases=1 Bus1=178.1    Bus2=177.1  Switch=y Enabled=y  LineCode=mtx167
New Line.275273    Phases=1 Bus1=275.1    Bus2=273.1  Switch=y Enabled=y  LineCode=mtx168
New Line.496498    Phases=1 Bus1=496.1    Bus2=498.1  Switch=y Enabled=y  LineCode=mtx169
New Line.182181    Phases=1 Bus1=182.1    Bus2=181.1  Switch=y Enabled=y  LineCode=mtx170
New Line.182180    Phases=1 Bus1=182.1    Bus2=180.1  Switch=y Enabled=y  LineCode=mtx171
New Line.176174    Phases=1 Bus1=176.1    Bus2=174.1  Switch=y Enabled=y  LineCode=mtx172
New Line.516514    Phases=1 Bus1=516.1    Bus2=514.1  Switch=y Enabled=y  LineCode=mtx173
New Line.516517    Phases=1 Bus1=516.1    Bus2=517.1  Switch=y Enabled=y  LineCode=mtx174
New Line.516515    Phases=1 Bus1=516.1    Bus2=515.1  Switch=y Enabled=y  LineCode=mtx175
New Line.286287    Phases=1 Bus1=286.1    Bus2=287.1  Switch=y Enabled=y  LineCode=mtx176
New Line.286285    Phases=1 Bus1=286.1    Bus2=285.1  Switch=y Enabled=y  LineCode=mtx177
New Line.249251    Phases=1 Bus1=249.1    Bus2=251.1  Switch=y Enabled=y  LineCode=mtx178
New Line.161162    Phases=1 Bus1=161.1    Bus2=162.1  Switch=y Enabled=y  LineCode=mtx179
New Line.202204    Phases=1 Bus1=202.1    Bus2=204.1  Switch=y Enabled=y  LineCode=mtx180
New Line.202200    Phases=1 Bus1=202.1    Bus2=200.1  Switch=y Enabled=y  LineCode=mtx181
New Line.202201    Phases=1 Bus1=202.1    Bus2=201.1  Switch=y Enabled=y  LineCode=mtx182
New Line.346345    Phases=1 Bus1=346.1    Bus2=345.1  Switch=y Enabled=y  LineCode=mtx183
New Line.346344    Phases=1 Bus1=346.1    Bus2=344.1  Switch=y Enabled=y  LineCode=mtx184
New Line.389391    Phases=1 Bus1=389.1    Bus2=391.1  Switch=y Enabled=y  LineCode=mtx185
New Line.465467    Phases=1 Bus1=465.1    Bus2=467.1  Switch=y Enabled=y  LineCode=mtx186
New Line.465466    Phases=1 Bus1=465.1    Bus2=466.1  Switch=y Enabled=y  LineCode=mtx187
New Line.146145    Phases=1 Bus1=146.1    Bus2=145.1  Switch=y Enabled=y  LineCode=mtx188
New Line.219217    Phases=1 Bus1=219.1    Bus2=217.1  Switch=y Enabled=y  LineCode=mtx189
New Line.219218    Phases=1 Bus1=219.1    Bus2=218.1  Switch=y Enabled=y  LineCode=mtx190
New Line.219220    Phases=1 Bus1=219.1    Bus2=220.1  Switch=y Enabled=y  LineCode=mtx191
New Line.291292    Phases=1 Bus1=291.1    Bus2=292.1  Switch=y Enabled=y  LineCode=mtx192
New Line.203202    Phases=1 Bus1=203.1    Bus2=202.1  Switch=y Enabled=y  LineCode=mtx193
New Line.360358    Phases=1 Bus1=360.1    Bus2=358.1  Switch=y Enabled=y  LineCode=mtx194
New Line.308309    Phases=1 Bus1=308.1    Bus2=309.1  Switch=y Enabled=y  LineCode=mtx195
New Line.432430    Phases=1 Bus1=432.1    Bus2=430.1  Switch=y Enabled=y  LineCode=mtx196
New Line.432434    Phases=1 Bus1=432.1    Bus2=434.1  Switch=y Enabled=y  LineCode=mtx197
New Line.418417    Phases=1 Bus1=418.1    Bus2=417.1  Switch=y Enabled=y  LineCode=mtx198
New Line.110112    Phases=1 Bus1=110.1    Bus2=112.1  Switch=y Enabled=y  LineCode=mtx199
New Line.492491    Phases=1 Bus1=492.1    Bus2=491.1  Switch=y Enabled=y  LineCode=mtx200
...

Set voltagebases=[0.4]
Set tolerance=0.000001
Calcvoltagebases
Solve
